version 2
run General-0-20190201-00:53:06-33960
attr configname General
attr datetime 20190201-00:53:06
attr experiment General
attr inifile omnetpp.ini
attr iterationvars ""
attr iterationvarsf ""
attr measurement ""
attr network checkpoint
attr processid 33960
attr repetition 0
attr replication #0
attr resultdir results
attr runnumber 0
attr seedset 0

scalar checkpoint.plane #passengerCount 45
statistic checkpoint.plane "hop count"
field count 45
field mean 131.34488628845
field stddev 83.661914121579
field min 7.577171173617
field max 303.91498557922
field sum 5910.5198829804
field sqrsum 1084286.4604131
bin	-inf	0
bin	-140.59173602919	0
bin	-120.83588173548	0
bin	-101.08002744177	0
bin	-81.324173148064	0
bin	-61.568318854357	0
bin	-41.81246456065	0
bin	-22.056610266943	0
bin	-2.3007559732365	3
bin	17.45509832047	4
bin	37.210952614177	4
bin	56.966806907884	4
bin	76.722661201591	3
bin	96.478515495298	3
bin	116.23436978901	3
bin	135.99022408271	4
bin	155.74607837642	3
bin	175.50193267013	2
bin	195.25778696383	3
bin	215.01364125754	3
bin	234.76949555125	3
bin	254.52534984495	0
bin	274.28120413866	2
bin	294.03705843237	1
bin	313.79291272607	0
bin	333.54876701978	0
bin	353.30462131349	0
bin	373.0604756072	0
bin	392.8163299009	0
bin	412.57218419461	0
bin	432.32803848832	0
bin	452.08389278202	0
scalar checkpoint.exit #passengerCount 5
statistic checkpoint.exit "hop count"
field count 5
field mean 223.12075433476
field stddev 80.327576345553
field min 99.951940531611
field max 288.47684485686
field sum 1115.6037716738
field sqrsum 274724.43316077
bin	-inf	0
bin	5.689488368986	0
bin	18.257815324003	0
bin	30.826142279019	0
bin	43.394469234036	0
bin	55.962796189053	0
bin	68.531123144069	0
bin	81.099450099086	0
bin	93.667777054103	1
bin	106.23610400912	0
bin	118.80443096414	0
bin	131.37275791915	0
bin	143.94108487417	0
bin	156.50941182919	0
bin	169.0777387842	0
bin	181.64606573922	1
bin	194.21439269424	0
bin	206.78271964925	0
bin	219.35104660427	0
bin	231.91937355929	0
bin	244.4877005143	0
bin	257.05602746932	1
bin	269.62435442434	1
bin	282.19268137935	1
bin	294.76100833437	0
bin	307.32933528939	0
bin	319.8976622444	0
bin	332.46598919942	0
bin	345.03431615444	0
bin	357.60264310945	0
bin	370.17097006447	0
bin	382.73929701949	0

